# parameters set by evolution

[Config Test2]
sim-time-limit = 100s

**.node[*].nic.ids.fwdBufferSize = 10000
**.node[*].nic.ids.fwdMinPacketsReceived = 0
**.node[*].nic.ids.maxMonitoredNodes = 250
