# parameters set by evolution

[Config Test3]
sim-time-limit = 300s

**.node[*].nic.ids.fwdBufferSize = 100
**.node[*].nic.ids.fwdMinPacketsReceived = 0
**.node[*].nic.ids.maxMonitoredNodes = 250
