[General]
sim-time-limit = 120s

**.optEngine.fractionDoneFile = "../../../../fraction_done.txt"

cmdenv-express-mode = true
cmdenv-event-banners = false
cmdenv-module-messages = false
cmdenv-status-frequency = 60s

cmdenv-config-name = Evolution

[Config Evolution]
**.appl.stats = true
**.debug = false
**.coreDebug = false
**.stats = false

**.node[0].appl.nbPacketsReceived.scalar-recording = true

**.*.scalar-recording = false
**.*.vector-recording = false
