# parameters set by evolution

[Config General]
sim-time-limit = 120s

**.node[*].nic.mac.checkInterval = 0.1s
**.node[*].nic.mac.slotDuration = 0.5s
